CMOS 3-INPUT NAND
V1 1 0 DC 0V PULSE(0 4V 0 0.1N 0.1N 1NS 2NS)
V2 2 0 DC 0V PULSE(0 4V 0 0.1N 0.1N 2NS 4NS)
V3 3 0 DC 0V PULSE(0 4V 0 0.1N 0.1N 4NS 8NS)
VDD 5 0 DC 5V
.model N1 nmos level=49 version=3.3.0
.model P1 pmos level=49 version=3.3.0
MP1 4 1 5 5 P1 W=360U L=180N
MP2 4 2 5 5 P1 W=360U L=180N
MP3 4 3 5 5 P1 W=360U L=180N
MN1 4 1 6 6 N1 W=360U L=180N
MN2 6 2 7 7 N1 W=360U L=180N
MN3 7 3 0 0 N1 W=360U L=180N
.TRAN 0.1NS 8NS
.CONTROL
RUN
PLOT V(1) V(2) V(3) V(4)
.ENDC
.END
