CMOS Inverter
.model n1 nmos level=49 version=3.3.0
.model p1 pmos level=49 version=3.3.0
MN 2 1 0 0 n1
MP 2 1 3 3 p1
C1 2 0 0.1P
VDD 3 0 5V
VIN 1 0 PULSE(0 5 10NS 0.01NS 0.01NS 30NS 60NS)
.TRAN 1NS 70NS
.CONTROL
RUN
PLOT V(1) V(2)
.ENDC
.END
