LOW PASS CIRCUIT
VIN 1 0 AC 1
R1 1 2 100
C1 2 0 1U
.AC DEC 10 0.1 100MEG
.CONTROL
RUN
PLOT V(2)
.ENDC
.END
