NMOS VTC
VIN 1 0 DC 5V
.MODEL N1 NMOS LEVEL=49 VERSION=3.3.0
M1 2 1 0 0 N1 L=5U W=2U
VDD 3 0 DC 5V
R1 3 2 100
.DC VDD 0 5 0.1 VIN 2 5 1
.CONTROL
RUN
PLOT -VDD#BRANCH
.ENDC

.END
